14367674
  -OEChem-06172223323D

 23 22  0     1  0  0  0  0  0999 V2000
    1.4230    0.5516   -0.0506 O   0  0  0  0  0  0  0  0  0  0  0  0
   -2.1212   -0.2285    0.1272 O   0  0  0  0  0  0  0  0  0  0  0  0
    2.7794   -1.3730   -0.3124 O   0  0  0  0  0  0  0  0  0  0  0  0
    0.2689   -0.2174    0.2614 C   0  0  0  0  0  0  0  0  0  0  0  0
   -0.9674    0.5498   -0.1664 C   0  0  0  0  0  0  0  0  0  0  0  0
    2.6340   -0.1070    0.3239 C   0  0  1  0  0  0  0  0  0  0  0  0
   -3.3145    0.4530   -0.2339 C   0  0  0  0  0  0  0  0  0  0  0  0
    3.8010    0.7939   -0.0506 C   0  0  0  0  0  0  0  0  0  0  0  0
   -4.5031   -0.4225    0.1015 C   0  0  0  0  0  0  0  0  0  0  0  0
    0.2943   -1.1823   -0.2585 H   0  0  0  0  0  0  0  0  0  0  0  0
    0.2301   -0.4204    1.3384 H   0  0  0  0  0  0  0  0  0  0  0  0
   -0.9210    0.7646   -1.2410 H   0  0  0  0  0  0  0  0  0  0  0  0
   -1.0119    1.5091    0.3633 H   0  0  0  0  0  0  0  0  0  0  0  0
    2.6320   -0.2693    1.4075 H   0  0  0  0  0  0  0  0  0  0  0  0
   -3.3843    1.3967    0.3186 H   0  0  0  0  0  0  0  0  0  0  0  0
   -3.3071    0.6694   -1.3080 H   0  0  0  0  0  0  0  0  0  0  0  0
    4.7561    0.3254    0.2062 H   0  0  0  0  0  0  0  0  0  0  0  0
    3.8088    0.9899   -1.1288 H   0  0  0  0  0  0  0  0  0  0  0  0
    3.7241    1.7618    0.4546 H   0  0  0  0  0  0  0  0  0  0  0  0
   -5.4411    0.0730   -0.1644 H   0  0  0  0  0  0  0  0  0  0  0  0
   -4.4430   -1.3759   -0.4336 H   0  0  0  0  0  0  0  0  0  0  0  0
   -4.5188   -0.6583    1.1707 H   0  0  0  0  0  0  0  0  0  0  0  0
    3.1767   -1.2300   -1.1878 H   0  0  0  0  0  0  0  0  0  0  0  0
  1  4  1  0  0  0  0
  1  6  1  0  0  0  0
  2  5  1  0  0  0  0
  2  7  1  0  0  0  0
  3  6  1  0  0  0  0
  3 23  1  0  0  0  0
  4  5  1  0  0  0  0
  4 10  1  0  0  0  0
  4 11  1  0  0  0  0
  5 12  1  0  0  0  0
  5 13  1  0  0  0  0
  6  8  1  0  0  0  0
  6 14  1  0  0  0  0
  7  9  1  0  0  0  0
  7 15  1  0  0  0  0
  7 16  1  0  0  0  0
  8 17  1  0  0  0  0
  8 18  1  0  0  0  0
  8 19  1  0  0  0  0
  9 20  1  0  0  0  0
  9 21  1  0  0  0  0
  9 22  1  0  0  0  0
M  END
> <PUBCHEM_COMPOUND_CID>
14367674

> <PUBCHEM_CONFORMER_RMSD>
0.6

> <PUBCHEM_CONFORMER_DIVERSEORDER>
4
90
68
89
58
61
1
44
62
43
67
66
88
19
73
72
27
76
46
85
70
11
54
87
60
32
65
45
55
39
7
42
37
15
57
28
81
35
16
25
48
3
69
18
38
50
63
56
24
21
23
33
82
49
59
80
47
6
36
5
17
64
53
77
2
75
41
29
74
78
86
26
22
84
12
31
9
83
30
13
52
10
71
20
14
8
79
34
40
51

> <PUBCHEM_MMFF94_PARTIAL_CHARGES>
8
1 -0.56
2 -0.56
23 0.4
3 -0.68
4 0.28
5 0.28
6 0.56
7 0.28

> <PUBCHEM_EFFECTIVE_ROTOR_COUNT>
5

> <PUBCHEM_PHARMACOPHORE_FEATURES>
4
1 1 acceptor
1 2 acceptor
1 3 acceptor
1 3 donor

> <PUBCHEM_HEAVY_ATOM_COUNT>
9

> <PUBCHEM_ATOM_DEF_STEREO_COUNT>
0

> <PUBCHEM_ATOM_UDEF_STEREO_COUNT>
1

> <PUBCHEM_BOND_DEF_STEREO_COUNT>
0

> <PUBCHEM_BOND_UDEF_STEREO_COUNT>
0

> <PUBCHEM_ISOTOPIC_ATOM_COUNT>
0

> <PUBCHEM_COMPONENT_COUNT>
1

> <PUBCHEM_CACTVS_TAUTO_COUNT>
1

> <PUBCHEM_CONFORMER_ID>
00DB3BBA00000004

> <PUBCHEM_MMFF94_ENERGY>
8.7713

> <PUBCHEM_FEATURE_SELFOVERLAP>
20.335

> <PUBCHEM_SHAPE_FINGERPRINT>
11062470 55 18408603669031148121
12932764 1 16988548091983643448
14123238 8 18259984902960909853
14325111 11 18410292488847629553
190213 19 18113618984634276517
20279233 1 17821734935358948866
20645477 70 18341048510595237710
20719005 15 18407759248322033008
21293036 1 17967532384852094529
22485316 2 18412822491189554511
23402539 116 12180117713930171611
3248919 1 14273741702780288504
449060 50 18410855503188864460

> <PUBCHEM_SHAPE_MULTIPOLES>
167.61
8.42
0.95
0.63
3.88
0.14
0.01
0.18
-0.1
-0.55
-0.08
-0.02
0.01
0.17

> <PUBCHEM_SHAPE_SELFOVERLAP>
296.192

> <PUBCHEM_SHAPE_VOLUME>
109.8

> <PUBCHEM_COORDINATE_TYPE>
2
5
10

$$$$
