87752369
  -OEChem-06172223483D

 28 27  0     1  0  0  0  0  0999 V2000
    0.7641    0.1856    0.6165 O   0  0  0  0  0  0  0  0  0  0  0  0
    1.8726    0.8298   -1.3744 O   0  0  0  0  0  0  0  0  0  0  0  0
   -0.1988   -0.6082   -0.0789 C   0  0  2  0  0  0  0  0  0  0  0  0
   -1.5949   -0.0437    0.2128 C   0  0  0  0  0  0  0  0  0  0  0  0
   -0.0324   -2.0636    0.3746 C   0  0  0  0  0  0  0  0  0  0  0  0
   -1.7171    1.4325   -0.1804 C   0  0  0  0  0  0  0  0  0  0  0  0
   -0.9521   -3.0396   -0.3406 C   0  0  0  0  0  0  0  0  0  0  0  0
    2.0071    0.2541   -0.0785 C   0  0  1  0  0  0  0  0  0  0  0  0
   -3.1153    1.9656    0.0915 C   0  0  0  0  0  0  0  0  0  0  0  0
    2.9668    1.0874    0.7573 C   0  0  0  0  0  0  0  0  0  0  0  0
   -0.0435   -0.5535   -1.1638 H   0  0  0  0  0  0  0  0  0  0  0  0
   -2.3563   -0.6205   -0.3236 H   0  0  0  0  0  0  0  0  0  0  0  0
   -1.8073   -0.1353    1.2856 H   0  0  0  0  0  0  0  0  0  0  0  0
    1.0022   -2.3880    0.2149 H   0  0  0  0  0  0  0  0  0  0  0  0
   -0.1940   -2.1340    1.4577 H   0  0  0  0  0  0  0  0  0  0  0  0
   -1.4865    1.5525   -1.2453 H   0  0  0  0  0  0  0  0  0  0  0  0
   -0.9949    2.0379    0.3789 H   0  0  0  0  0  0  0  0  0  0  0  0
   -2.0015   -2.8644   -0.0868 H   0  0  0  0  0  0  0  0  0  0  0  0
   -0.8386   -2.9634   -1.4265 H   0  0  0  0  0  0  0  0  0  0  0  0
   -0.7106   -4.0663   -0.0467 H   0  0  0  0  0  0  0  0  0  0  0  0
    2.4253   -0.7501   -0.1991 H   0  0  0  0  0  0  0  0  0  0  0  0
   -3.3650    1.8877    1.1544 H   0  0  0  0  0  0  0  0  0  0  0  0
   -3.1817    3.0194   -0.1968 H   0  0  0  0  0  0  0  0  0  0  0  0
   -3.8653    1.4095   -0.4799 H   0  0  0  0  0  0  0  0  0  0  0  0
    2.5702    2.0975    0.9108 H   0  0  0  0  0  0  0  0  0  0  0  0
    3.1110    0.6413    1.7465 H   0  0  0  0  0  0  0  0  0  0  0  0
    3.9363    1.1864    0.2592 H   0  0  0  0  0  0  0  0  0  0  0  0
    1.9080    1.7967   -1.2828 H   0  0  0  0  0  0  0  0  0  0  0  0
  1  3  1  0  0  0  0
  1  8  1  0  0  0  0
  2  8  1  0  0  0  0
  2 28  1  0  0  0  0
  3  4  1  0  0  0  0
  3  5  1  0  0  0  0
  3 11  1  0  0  0  0
  4  6  1  0  0  0  0
  4 12  1  0  0  0  0
  4 13  1  0  0  0  0
  5  7  1  0  0  0  0
  5 14  1  0  0  0  0
  5 15  1  0  0  0  0
  6  9  1  0  0  0  0
  6 16  1  0  0  0  0
  6 17  1  0  0  0  0
  7 18  1  0  0  0  0
  7 19  1  0  0  0  0
  7 20  1  0  0  0  0
  8 10  1  0  0  0  0
  8 21  1  0  0  0  0
  9 22  1  0  0  0  0
  9 23  1  0  0  0  0
  9 24  1  0  0  0  0
 10 25  1  0  0  0  0
 10 26  1  0  0  0  0
 10 27  1  0  0  0  0
M  END
> <PUBCHEM_COMPOUND_CID>
87752369

> <PUBCHEM_CONFORMER_RMSD>
0.6

> <PUBCHEM_CONFORMER_DIVERSEORDER>
1
160
159
139
86
174
191
176
45
96
153
116
155
157
173
195
133
95
166
146
147
192
132
17
186
24
152
193
48
88
131
144
134
150
107
138
61
125
188
190
104
75
198
170
120
164
142
55
83
127
34
109
184
145
175
154
111
136
25
168
178
123
163
182
172
119
68
97
64
171
179
9
140
15
20
126
183
129
108
74
71
78
100
43
130
199
22
52
117
156
39
57
49
151
122
56
59
98
58
115
76
197
81
54
162
93
124
42
50
101
94
10
141
60
99
89
46
8
51
92
114
62
40
80
143
84
91
194
149
187
106
113
185
69
77
181
121
7
158
102
161
33
66
79
177
47
196
85
73
63
37
2
189
28
53
112
70
128
5
82
90
27
44
65
14
32
103
26
180
19
135
87
36
16
110
35
21
118
11
105
148
165
169
18
167
4
23
72
13
41
12
38
3
6
30
31
67
137
29

> <PUBCHEM_MMFF94_PARTIAL_CHARGES>
5
1 -0.56
2 -0.68
28 0.4
3 0.28
8 0.56

> <PUBCHEM_EFFECTIVE_ROTOR_COUNT>
5

> <PUBCHEM_PHARMACOPHORE_FEATURES>
5
1 1 acceptor
1 2 acceptor
1 2 donor
1 7 hydrophobe
1 9 hydrophobe

> <PUBCHEM_HEAVY_ATOM_COUNT>
10

> <PUBCHEM_ATOM_DEF_STEREO_COUNT>
0

> <PUBCHEM_ATOM_UDEF_STEREO_COUNT>
2

> <PUBCHEM_BOND_DEF_STEREO_COUNT>
0

> <PUBCHEM_BOND_UDEF_STEREO_COUNT>
0

> <PUBCHEM_ISOTOPIC_ATOM_COUNT>
0

> <PUBCHEM_COMPONENT_COUNT>
1

> <PUBCHEM_CACTVS_TAUTO_COUNT>
1

> <PUBCHEM_CONFORMER_ID>
053AFEB100000001

> <PUBCHEM_MMFF94_ENERGY>
7.264

> <PUBCHEM_FEATURE_SELFOVERLAP>
25.409

> <PUBCHEM_SHAPE_FINGERPRINT>
1 1 18194680363122158983
100427 49 17111860812262054923
12716758 59 18341898519325199938
19021347 4 18410570669626875715
20711985 344 18049176741089954966
21028194 46 18335143033789898889
21040471 1 18410014333896449994
21524375 3 18334009458755256377
23402539 116 18126546024224910839
23552423 10 17908136586832136037
23552449 1 18051689150807589202
2748010 2 18337121063861311007
305870 269 18265326214273636168
7364860 26 17908701726881216187
81228 2 18122913293673157067

> <PUBCHEM_SHAPE_MULTIPOLES>
194.06
3.98
2.88
0.87
0.11
2.71
0.16
-3.79
-0.29
-1.49
0.11
0.41
-0.15
-0.02

> <PUBCHEM_SHAPE_SELFOVERLAP>
347.124

> <PUBCHEM_SHAPE_VOLUME>
126

> <PUBCHEM_COORDINATE_TYPE>
2
5
10

$$$$
