8177
  -OEChem-06172223153D

 29 28  0     0  0  0  0  0  0999 V2000
   -1.0854    0.3538    0.0958 O   0  0  0  0  0  0  0  0  0  0  0  0
    2.5174    0.0043   -0.2175 O   0  0  0  0  0  0  0  0  0  0  0  0
    4.9932   -1.1028    0.4701 O   0  0  0  0  0  0  0  0  0  0  0  0
   -3.4780    0.2760    0.1518 C   0  0  0  0  0  0  0  0  0  0  0  0
   -2.2033   -0.4525   -0.2497 C   0  0  0  0  0  0  0  0  0  0  0  0
   -4.7227   -0.5433   -0.1772 C   0  0  0  0  0  0  0  0  0  0  0  0
    0.1400   -0.2746   -0.2554 C   0  0  0  0  0  0  0  0  0  0  0  0
    1.2901    0.6418    0.1154 C   0  0  0  0  0  0  0  0  0  0  0  0
   -5.9912    0.1688    0.2645 C   0  0  0  0  0  0  0  0  0  0  0  0
    3.6326    0.8297    0.0889 C   0  0  0  0  0  0  0  0  0  0  0  0
    4.9072    0.0987   -0.2866 C   0  0  0  0  0  0  0  0  0  0  0  0
   -3.5177    1.2482   -0.3552 H   0  0  0  0  0  0  0  0  0  0  0  0
   -3.4436    0.4994    1.2255 H   0  0  0  0  0  0  0  0  0  0  0  0
   -2.1378   -1.4129    0.2750 H   0  0  0  0  0  0  0  0  0  0  0  0
   -2.2020   -0.6390   -1.3301 H   0  0  0  0  0  0  0  0  0  0  0  0
   -4.6690   -1.5191    0.3196 H   0  0  0  0  0  0  0  0  0  0  0  0
   -4.7707   -0.7307   -1.2561 H   0  0  0  0  0  0  0  0  0  0  0  0
    0.2390   -1.2306    0.2729 H   0  0  0  0  0  0  0  0  0  0  0  0
    0.1643   -0.4851   -1.3315 H   0  0  0  0  0  0  0  0  0  0  0  0
    1.2597    0.8641    1.1889 H   0  0  0  0  0  0  0  0  0  0  0  0
    1.1976    1.5922   -0.4243 H   0  0  0  0  0  0  0  0  0  0  0  0
   -5.9891    0.3399    1.3457 H   0  0  0  0  0  0  0  0  0  0  0  0
   -6.0921    1.1368   -0.2367 H   0  0  0  0  0  0  0  0  0  0  0  0
   -6.8702   -0.4348    0.0178 H   0  0  0  0  0  0  0  0  0  0  0  0
    3.5658    1.7703   -0.4686 H   0  0  0  0  0  0  0  0  0  0  0  0
    3.6313    1.0433    1.1640 H   0  0  0  0  0  0  0  0  0  0  0  0
    5.7880    0.7093   -0.0700 H   0  0  0  0  0  0  0  0  0  0  0  0
    4.9118   -0.1720   -1.3470 H   0  0  0  0  0  0  0  0  0  0  0  0
    4.1974   -1.6272    0.2766 H   0  0  0  0  0  0  0  0  0  0  0  0
  1  5  1  0  0  0  0
  1  7  1  0  0  0  0
  2  8  1  0  0  0  0
  2 10  1  0  0  0  0
  3 11  1  0  0  0  0
  3 29  1  0  0  0  0
  4  5  1  0  0  0  0
  4  6  1  0  0  0  0
  4 12  1  0  0  0  0
  4 13  1  0  0  0  0
  5 14  1  0  0  0  0
  5 15  1  0  0  0  0
  6  9  1  0  0  0  0
  6 16  1  0  0  0  0
  6 17  1  0  0  0  0
  7  8  1  0  0  0  0
  7 18  1  0  0  0  0
  7 19  1  0  0  0  0
  8 20  1  0  0  0  0
  8 21  1  0  0  0  0
  9 22  1  0  0  0  0
  9 23  1  0  0  0  0
  9 24  1  0  0  0  0
 10 11  1  0  0  0  0
 10 25  1  0  0  0  0
 10 26  1  0  0  0  0
 11 27  1  0  0  0  0
 11 28  1  0  0  0  0
M  END
> <PUBCHEM_COMPOUND_CID>
8177

> <PUBCHEM_CONFORMER_RMSD>
0.8

> <PUBCHEM_CONFORMER_DIVERSEORDER>
3
164
116
9
103
74
96
159
128
117
133
137
49
100
121
139
153
78
7
127
115
75
130
38
36
158
58
14
21
138
61
95
34
27
60
167
29
131
134
35
43
144
41
33
79
50
124
102
18
87
136
165
67
63
52
155
80
154
163
146
44
30
126
22
65
135
53
151
112
20
73
6
86
46
170
166
28
56
156
168
55
169
101
98
84
4
111
16
81
1
11
71
113
85
23
107
93
76
2
66
157
54
72
148
150
141
24
82
152
31
15
59
10
149
88
17
68
125
89
160
90
48
122
13
99
105
123
129
132
145
106
12
47
91
104
120
69
39
42
142
83
119
140
108
92
8
147
162
57
94
62
70
37
64
32
109
5
26
143
118
77
25
110
51
161
40
19
97
45
114

> <PUBCHEM_MMFF94_PARTIAL_CHARGES>
9
1 -0.56
10 0.28
11 0.28
2 -0.56
29 0.4
3 -0.68
5 0.28
7 0.28
8 0.28

> <PUBCHEM_EFFECTIVE_ROTOR_COUNT>
8

> <PUBCHEM_PHARMACOPHORE_FEATURES>
5
1 1 acceptor
1 2 acceptor
1 3 acceptor
1 3 donor
1 9 hydrophobe

> <PUBCHEM_HEAVY_ATOM_COUNT>
11

> <PUBCHEM_ATOM_DEF_STEREO_COUNT>
0

> <PUBCHEM_ATOM_UDEF_STEREO_COUNT>
0

> <PUBCHEM_BOND_DEF_STEREO_COUNT>
0

> <PUBCHEM_BOND_UDEF_STEREO_COUNT>
0

> <PUBCHEM_ISOTOPIC_ATOM_COUNT>
0

> <PUBCHEM_COMPONENT_COUNT>
1

> <PUBCHEM_CACTVS_TAUTO_COUNT>
1

> <PUBCHEM_CONFORMER_ID>
00001FF100000003

> <PUBCHEM_MMFF94_ENERGY>
10.8319

> <PUBCHEM_FEATURE_SELFOVERLAP>
25.376

> <PUBCHEM_SHAPE_FINGERPRINT>
11062470 55 10664104454148975068
11401426 45 14908180854647215013
114248 4 10015866479051494829
12815109 37 12103846756827025019
14123238 8 10737283550110434053
1420 363 16443069395997996481
14251718 22 9871746893208845581
17834072 33 18411980286335501959
17834076 25 18410294717798486645
20645477 70 18334294228541893902
20719005 15 18412826893072038509
20767249 13 16845574222963344757
20767249 213 11600002158847410163
23218964 4 18410572873192810389
23402539 116 17632854235745140741
42788 4 18413671322782466901
522135 26 18187083962557142468
57483677 66 18260827115893584043

> <PUBCHEM_SHAPE_MULTIPOLES>
208.77
14.09
0.86
0.64
3.31
0.04
0
1.07
0.96
-0.47
0.05
-0.05
0.02
-0.31

> <PUBCHEM_SHAPE_SELFOVERLAP>
370.572

> <PUBCHEM_SHAPE_VOLUME>
136.5

> <PUBCHEM_COORDINATE_TYPE>
2
5
10

$$$$
