15355
  -OEChem-06172223013D

 28 27  0     0  0  0  0  0  0999 V2000
    0.1645   -0.0327   -0.6082 P   0  0  0  0  0  0  0  0  0  0  0  0
    1.7313   -0.0613    0.0887 N   0  0  0  0  0  0  0  0  0  0  0  0
   -0.7705   -1.3430   -0.0447 N   0  0  0  0  0  0  0  0  0  0  0  0
   -0.6307    1.4173   -0.1839 N   0  0  0  0  0  0  0  0  0  0  0  0
    2.6254    1.0271   -0.3288 C   0  0  0  0  0  0  0  0  0  0  0  0
    2.4516   -1.3322   -0.0681 C   0  0  0  0  0  0  0  0  0  0  0  0
   -0.9824   -1.3886    1.4017 C   0  0  0  0  0  0  0  0  0  0  0  0
   -2.0024   -1.6907   -0.7504 C   0  0  0  0  0  0  0  0  0  0  0  0
   -1.9851    1.5622   -0.7213 C   0  0  0  0  0  0  0  0  0  0  0  0
   -0.6017    1.8419    1.2149 C   0  0  0  0  0  0  0  0  0  0  0  0
    2.8788    0.9691   -1.3946 H   0  0  0  0  0  0  0  0  0  0  0  0
    3.5591    1.0010    0.2456 H   0  0  0  0  0  0  0  0  0  0  0  0
    2.1843    2.0120   -0.1360 H   0  0  0  0  0  0  0  0  0  0  0  0
    2.6739   -1.5572   -1.1186 H   0  0  0  0  0  0  0  0  0  0  0  0
    1.8874   -2.1729    0.3525 H   0  0  0  0  0  0  0  0  0  0  0  0
    3.4000   -1.3085    0.4822 H   0  0  0  0  0  0  0  0  0  0  0  0
   -1.8120   -0.7527    1.7266 H   0  0  0  0  0  0  0  0  0  0  0  0
   -0.0878   -1.1311    1.9808 H   0  0  0  0  0  0  0  0  0  0  0  0
   -1.2372   -2.4140    1.6980 H   0  0  0  0  0  0  0  0  0  0  0  0
   -1.8644   -1.6666   -1.8380 H   0  0  0  0  0  0  0  0  0  0  0  0
   -2.8500   -1.0498   -0.4951 H   0  0  0  0  0  0  0  0  0  0  0  0
   -2.2906   -2.7203   -0.5056 H   0  0  0  0  0  0  0  0  0  0  0  0
   -2.0602    1.2378   -1.7664 H   0  0  0  0  0  0  0  0  0  0  0  0
   -2.2654    2.6231   -0.7199 H   0  0  0  0  0  0  0  0  0  0  0  0
   -2.7376    1.0355   -0.1261 H   0  0  0  0  0  0  0  0  0  0  0  0
   -0.8723    2.9031    1.2798 H   0  0  0  0  0  0  0  0  0  0  0  0
    0.3973    1.7671    1.6585 H   0  0  0  0  0  0  0  0  0  0  0  0
   -1.3017    1.2971    1.8534 H   0  0  0  0  0  0  0  0  0  0  0  0
  1  2  1  0  0  0  0
  1  3  1  0  0  0  0
  1  4  1  0  0  0  0
  2  5  1  0  0  0  0
  2  6  1  0  0  0  0
  3  7  1  0  0  0  0
  3  8  1  0  0  0  0
  4  9  1  0  0  0  0
  4 10  1  0  0  0  0
  5 11  1  0  0  0  0
  5 12  1  0  0  0  0
  5 13  1  0  0  0  0
  6 14  1  0  0  0  0
  6 15  1  0  0  0  0
  6 16  1  0  0  0  0
  7 17  1  0  0  0  0
  7 18  1  0  0  0  0
  7 19  1  0  0  0  0
  8 20  1  0  0  0  0
  8 21  1  0  0  0  0
  8 22  1  0  0  0  0
  9 23  1  0  0  0  0
  9 24  1  0  0  0  0
  9 25  1  0  0  0  0
 10 26  1  0  0  0  0
 10 27  1  0  0  0  0
 10 28  1  0  0  0  0
M  END
> <PUBCHEM_COMPOUND_CID>
15355

> <PUBCHEM_CONFORMER_RMSD>
0.6

> <PUBCHEM_CONFORMER_DIVERSEORDER>
1
4
3
2

> <PUBCHEM_MMFF94_PARTIAL_CHARGES>
10
1 0.33
10 0.27
2 -0.65
3 -0.65
4 -0.65
5 0.27
6 0.27
7 0.27
8 0.27
9 0.27

> <PUBCHEM_EFFECTIVE_ROTOR_COUNT>
3

> <PUBCHEM_PHARMACOPHORE_FEATURES>
0

> <PUBCHEM_HEAVY_ATOM_COUNT>
10

> <PUBCHEM_ATOM_DEF_STEREO_COUNT>
0

> <PUBCHEM_ATOM_UDEF_STEREO_COUNT>
0

> <PUBCHEM_BOND_DEF_STEREO_COUNT>
0

> <PUBCHEM_BOND_UDEF_STEREO_COUNT>
0

> <PUBCHEM_ISOTOPIC_ATOM_COUNT>
0

> <PUBCHEM_COMPONENT_COUNT>
1

> <PUBCHEM_CACTVS_TAUTO_COUNT>
1

> <PUBCHEM_CONFORMER_ID>
00003BFB00000001

> <PUBCHEM_MMFF94_ENERGY>
28.2517

> <PUBCHEM_FEATURE_SELFOVERLAP>
0

> <PUBCHEM_SHAPE_FINGERPRINT>
12423570 1 10793476140373539289
137420 1 14279599750630568485
14713566 1 18124860275225636690
15775835 57 17899137109390568764
16945 1 18116996800065713902
18342897 137 18196096542920862246
23526113 38 17751905063690936955
23526114 1 17256526846983814998
23552423 10 18333447642868451518
29004967 10 17973451189151884426
5084963 1 17982160128713637148
528862 383 17321256810229501251

> <PUBCHEM_SHAPE_MULTIPOLES>
194.7
3.27
2.33
1.14
2.08
0.17
0.36
-0.26
-0.67
-0.99
0.23
-0.49
0
-0.03

> <PUBCHEM_SHAPE_SELFOVERLAP>
330.589

> <PUBCHEM_SHAPE_VOLUME>
134.8

> <PUBCHEM_COORDINATE_TYPE>
2
5
10

$$$$
